support/cimhub_docker/python_scripts/optimized_dss/dss/Master.dss
clear
New circuit.psu_13_node_feeder
~ basekv=115 pu=1.00 phases=3 bus1=SourceBus
~ Angle=30
~ MVAsc3=20000 MVASC1=21000

// Feeder Head xfmrs config:
New XfmrCode.SubXfmr Phases=3 Windings=2  XHL=(8 1000 /)
~ wdg=1 conn=delta kv=115  kva=5000  %r=(.5 1000 /)
~ wdg=2 conn=wye   kv=4.16 kva=5000  %r=(.5 1000 /)

New XfmrCode.FdrXfmr Phases=3   Windings=2  XHL=2  %NoLoadLoss=0.6 %imag=1.1
~ wdg=1 conn=Wye kv=4.16   kva=500   %r=.55
~ wdg=2 conn=Wye kv=0.480  kva=500   %r=.55

New XfmrCode.RegLeg  phases=1 xhl=0.01 kvas=[1666 1666] kvs=[2.4 2.4] %LoadLoss=0.01


//Sub Xfmr:
New Transformer.trans_source_N650 XfmrCode=SubXfmr Buses=[SourceBus N650]
New Transformer.XFM1 XfmrCode=FdrXfmr Buses=[N633 N634]

//Reg legs:
New Transformer.Reg1 XfmrCode=RegLeg Bank=Reg Buses=[N650.1 RG60.1]
New Transformer.Reg2 XfmrCode=RegLeg Bank=Reg Buses=[N650.2 RG60.2]
New Transformer.Reg3 XfmrCode=RegLeg Bank=Reg Buses=[N650.3 RG60.3]

//Reg Controls

new regcontrol.Reg1  transformer=Reg1 winding=2  vreg=122  band=2  ptratio=20 ctprim=700  R=3   X=9 
new regcontrol.Reg2  transformer=Reg2 winding=2  vreg=122  band=2  ptratio=20 ctprim=700  R=3   X=9 
new regcontrol.Reg3  transformer=Reg3 winding=2  vreg=122  band=2  ptratio=20 ctprim=700  R=3   X=9


// Line codes:
New Linecode.2P_OH_Code0 units=km nphases=2
~ rmatrix = [0.086666667 | 0.02907197  0.087405303]
~ xmatrix = [0.204166667 | 0.072897727  0.201723485]
~ cmatrix = [2.569829596 | -0.52995137  2.597460011]

New Linecode.3P_OH_Code1 units=km nphases=3
~ rmatrix = [0.086666667 | 0.029545455 0.088371212 | 0.02907197 0.029924242 0.087405303]
~ xmatrix = [0.204166667 | 0.095018939 0.198522727 | 0.072897727 0.080227273 0.201723485]
~ cmatrix = [2.851710072 | -0.920293787  3.004631862 | -0.350755566  -0.585011253 2.71134756]


New Linecode.2P_OH_Code2 units=km nphases=2
~ rmatrix = [0.086666667 | 0.02907197  0.087405303]
~ xmatrix = [0.204166667 | 0.072897727  0.201723485]
~ cmatrix = [2.569829596 | -0.52995137  2.597460011]

New Linecode.1P_OH_Code3 units=km nphases=1
~ rmatrix = [0.251742424]
~ xmatrix = [0.255208333]
~ cmatrix = [2.270366128]


New Linecode.1P_UG_Code4 units=km nphases=1
~ rmatrix = [0.251742424]
~ xmatrix = [0.255208333]
~ cmatrix = [2.270366128]

New Linecode.3P_UG_Code5 units=km nphases=3
~ rmatrix = [0.086666667 | 0.029545455 0.088371212 | 0.02907197 0.029924242 0.087405303]
~ xmatrix = [0.204166667 | 0.095018939 0.198522727 | 0.072897727 0.080227273 0.201723485]
~ cmatrix = [2.851710072 | -0.920293787  3.004631862 | -0.350755566  -0.585011253 2.71134756]

New Linecode.3P_OH_Code6 units=km nphases=3
~ rmatrix = [0.086666667 | 0.029545455 0.088371212 | 0.02907197 0.029924242 0.087405303]
~ xmatrix = [0.204166667 | 0.095018939 0.198522727 | 0.072897727 0.080227273 0.201723485]
~ cmatrix = [2.851710072 | -0.920293787  3.004631862 | -0.350755566  -0.585011253 2.71134756]

New Linecode.3P_Code7 units=km nphases=3
~ rmatrix = [0.086666667 | 0.029545455 0.088371212 | 0.02907197 0.029924242 0.087405303]
~ xmatrix = [0.204166667 | 0.095018939 0.198522727 | 0.072897727 0.080227273 0.201723485]
~ cmatrix = [2.851710072 | -0.920293787  3.004631862 | -0.350755566  -0.585011253 2.71134756]

New Linecode.1P_OH_Code8 units=km nphases=1
~ rmatrix = [0.251742424]
~ xmatrix = [0.255208333]
~ cmatrix = [2.270366128]

New Linecode.1P_OH_Code9 units=km nphases=1
~ rmatrix = [0.251742424]
~ xmatrix = [0.255208333]
~ cmatrix = [2.270366128]

New Linecode.2P_Code10 units=km nphases=2
~ rmatrix = [0.086666667 | 0.02907197  0.087405303]
~ xmatrix = [0.204166667 | 0.072897727  0.201723485]
~ cmatrix = [2.569829596 | -0.52995137  2.597460011]


// Line Objects:
New Line.OL630-632 Units=km Length=0.6096
~ bus1=RG60.1.2.3
~ bus2=N632.1.2.3 switch=n  phases=3 Linecode=3P_OH_Code1

New Line.OL632-645 Units=km Length=0.1524
~ bus1=N632.2.3
~ bus2=N645.2.3 switch=n  phases=2 Linecode=2P_OH_Code0

New Line.OL645-646 Units=km Length=0.09144
~ bus1=N645.2.3
~ bus2=N646.2.3 switch=n  phases=2 Linecode=2P_OH_Code0

New Line.OL632-6321 Units=km Length=0.1524
~ bus1=N632.1.2.3
~ bus2=N6321.1.2.3 switch=n  phases=3 Linecode=3P_OH_Code1

New Line.OL6321-671 Units=km Length=0.457
~ bus1=N6321.1.2.3
~ bus2=N671.1.2.3 switch=n  phases=3 Linecode=3P_OH_Code1

New Line.OL671-680 Units=km Length=0.3048
~ bus1=N671.1.2.3
~ bus2=N680.1.2.3 switch=n  phases=3 Linecode=3P_OH_Code1

New Line.OL671-684 Units=km Length=0.09144
~ bus1=N671.1.3
~ bus2=N684.1.3 switch=n  phases=2 Linecode=2P_OH_Code2

New Line.ol684611 Units=km Length=0.09144
~ bus1=N684.3
~ bus2=N611.3 phases=1 Linecode=1P_OH_Code3

New Line.UL684-652 Units=km Length=0.24384
~ bus1=N684.1
~ bus2=N652.1 switch=n  phases=1 Linecode=1P_UG_Code4

New Line.UL692-675 Units=km Length=0.1524
~ bus1=N692.1.2.3
~ bus2=N675.1.2.3 switch=n  phases=3 Linecode=3P_UG_Code5

New Line.UL632-633 Units=km Length=0.1524
~ bus1=N632.1.2.3
~ bus2=N633.1.2.3 switch=n  phases=3 Linecode=3P_OH_Code6

New Line.S671-692 Units=km Length=0.001
~ bus1=N671.1.2.3
~ bus2=N692.1.2.3 switch=n phases=3 Linecode=3P_Code7

New Line.trip_line_652_A_h_1 length=50 units=ft
~ bus1=trip_node_652_A_1.1.2
~ bus2=trip_load_652_A_h_1.1.2 switch=n  phases=2 Linecode=2P_Code10

New Line.trip_line_652_A_h_2 length=50 units=ft
~ bus1=trip_node_652_A_1.1.2
~ bus2=trip_load_652_A_h_2.1.2 switch=n  phases=2 Linecode=2P_Code10

New Line.trip_line_652_A_h_3 length=50 units=ft
~ bus1=trip_node_652_A_1.1.2
~ bus2=trip_load_652_A_h_3.1.2 switch=n  phases=2 Linecode=2P_Code10

New Line.trip_line_652_A_h_4 length=50 units=ft
~ bus1=trip_node_652_A_1.1.2
~ bus2=trip_load_652_A_h_4.1.2 switch=n  phases=2 Linecode=2P_Code10

New Line.trip_line_652_A_h_5 length=50 units=ft
~ bus1=trip_node_652_A_1.1.2
~ bus2=trip_load_652_A_h_5.1.2 switch=n  phases=2 Linecode=2P_Code10

New Line.trip_line_652_A_h_6 length=50 units=ft
~ bus1=trip_node_652_A_1.1.2
~ bus2=trip_load_652_A_h_6.1.2 switch=n  phases=2 Linecode=2P_Code10

New Line.trip_line_652_A_h_7 length=50 units=ft
~ bus1=trip_node_652_A_1.1.2
~ bus2=trip_load_652_A_h_7.1.2 switch=n  phases=2 Linecode=2P_Code10

New Line.trip_line_652_A_h_8 length=50 units=ft
~ bus1=trip_node_652_A_1.1.2
~ bus2=trip_load_652_A_h_8.1.2 switch=n  phases=2 Linecode=2P_Code10

 
New Line.trip_line_652_A_h_9 length=50 units=ft
~ bus1=trip_node_652_A_2.1.2
~ bus2=trip_load_652_A_h_9.1.2 switch=n  phases=2 Linecode=2P_Code10

New Line.trip_line_652_A_h_10 length=50 units=ft
~ bus1=trip_node_652_A_2.1.2
~ bus2=trip_load_652_A_h_10.1.2 switch=n  phases=2 Linecode=2P_Code10

New Line.trip_line_652_A_h_11 length=50 units=ft
~ bus1=trip_node_652_A_2.1.2
~ bus2=trip_load_652_A_h_11.1.2 switch=n  phases=2 Linecode=2P_Code10

New Line.trip_line_652_A_h_12 length=50 units=ft
~ bus1=trip_node_652_A_2.1.2
~ bus2=trip_load_652_A_h_12.1.2 switch=n  phases=2 Linecode=2P_Code10

New Line.trip_line_652_A_h_13 length=50 units=ft
~ bus1=trip_node_652_A_2.1.2
~ bus2=trip_load_652_A_h_13.1.2 switch=n  phases=2 Linecode=2P_Code10

New Line.trip_line_652_A_h_14 length=50 units=ft
~ bus1=trip_node_652_A_2.1.2
~ bus2=trip_load_652_A_h_14.1.2 switch=n  phases=2 Linecode=2P_Code10

New Line.trip_line_652_A_h_15 length=50 units=ft
~ bus1=trip_node_652_A_2.1.2
~ bus2=trip_load_652_A_h_15.1.2 switch=n  phases=2 Linecode=2P_Code10

New Line.trip_line_652_A_h_16 length=50 units=ft
~ bus1=trip_node_652_A_2.1.2
~ bus2=trip_load_652_A_h_16.1.2 switch=n  phases=2 Linecode=2P_Code10

 
New Line.trip_line_652_A_h_17 length=50 units=ft
~ bus1=trip_node_652_A_3.1.2
~ bus2=trip_load_652_A_h_17.1.2 switch=n  phases=2 Linecode=2P_Code10

New Line.trip_line_652_A_h_18 length=50 units=ft
~ bus1=trip_node_652_A_3.1.2
~ bus2=trip_load_652_A_h_18.1.2 switch=n  phases=2 Linecode=2P_Code10

New Line.trip_line_652_A_h_19 length=50 units=ft
~ bus1=trip_node_652_A_3.1.2
~ bus2=trip_load_652_A_h_19.1.2 switch=n  phases=2 Linecode=2P_Code10

New Line.trip_line_652_A_h_20 length=50 units=ft
~ bus1=trip_node_652_A_3.1.2
~ bus2=trip_load_652_A_h_20.1.2 switch=n  phases=2 Linecode=2P_Code10

New Line.trip_line_652_A_h_21 length=50 units=ft
~ bus1=trip_node_652_A_3.1.2
~ bus2=trip_load_652_A_h_21.1.2 switch=n  phases=2 Linecode=2P_Code10

New Line.trip_line_652_A_h_22 length=50 units=ft
~ bus1=trip_node_652_A_3.1.2
~ bus2=trip_load_652_A_h_22.1.2 switch=n  phases=2 Linecode=2P_Code10

New Line.trip_line_652_A_h_23 length=50 units=ft
~ bus1=trip_node_652_A_3.1.2
~ bus2=trip_load_652_A_h_23.1.2 switch=n  phases=2 Linecode=2P_Code10

New Line.trip_line_652_A_h_24 length=50 units=ft
~ bus1=trip_node_652_A_3.1.2
~ bus2=trip_load_652_A_h_24.1.2 switch=n  phases=2 Linecode=2P_Code10

 
New Line.trip_line_652_A_h_25 length=50 units=ft
~ bus1=trip_node_652_A_4.1.2
~ bus2=trip_load_652_A_h_25.1.2 switch=n  phases=2 Linecode=2P_Code10

New Line.trip_line_652_A_h_26 length=50 units=ft
~ bus1=trip_node_652_A_4.1.2
~ bus2=trip_load_652_A_h_26.1.2 switch=n  phases=2 Linecode=2P_Code10

New Line.trip_line_652_A_h_27 length=50 units=ft
~ bus1=trip_node_652_A_4.1.2
~ bus2=trip_load_652_A_h_27.1.2 switch=n  phases=2 Linecode=2P_Code10

New Line.trip_line_652_A_h_28 length=50 units=ft
~ bus1=trip_node_652_A_4.1.2
~ bus2=trip_load_652_A_h_28.1.2 switch=n  phases=2 Linecode=2P_Code10

New Line.trip_line_652_A_h_29 length=50 units=ft
~ bus1=trip_node_652_A_4.1.2
~ bus2=trip_load_652_A_h_29.1.2 switch=n  phases=2 Linecode=2P_Code10

New Line.trip_line_652_A_h_30 length=50 units=ft
~ bus1=trip_node_652_A_4.1.2
~ bus2=trip_load_652_A_h_30.1.2 switch=n  phases=2 Linecode=2P_Code10

New Line.trip_line_652_A_h_31 length=50 units=ft
~ bus1=trip_node_652_A_4.1.2
~ bus2=trip_load_652_A_h_31.1.2 switch=n  phases=2 Linecode=2P_Code10

New Line.trip_line_652_A_h_32 length=50 units=ft
~ bus1=trip_node_652_A_4.1.2
~ bus2=trip_load_652_A_h_32.1.2 switch=n  phases=2 Linecode=2P_Code10

 
New Line.trip_line_652_A_h_33 length=50 units=ft
~ bus1=trip_node_652_A_5.1.2
~ bus2=trip_load_652_A_h_33.1.2 switch=n  phases=2 Linecode=2P_Code10

New Line.trip_line_652_A_h_34 length=50 units=ft
~ bus1=trip_node_652_A_5.1.2
~ bus2=trip_load_652_A_h_34.1.2 switch=n  phases=2 Linecode=2P_Code10

New Line.trip_line_652_A_h_35 length=50 units=ft
~ bus1=trip_node_652_A_5.1.2
~ bus2=trip_load_652_A_h_35.1.2 switch=n  phases=2 Linecode=2P_Code10

New Line.trip_line_652_A_h_36 length=50 units=ft
~ bus1=trip_node_652_A_5.1.2
~ bus2=trip_load_652_A_h_36.1.2 switch=n  phases=2 Linecode=2P_Code10

New Line.trip_line_652_A_h_37 length=50 units=ft
~ bus1=trip_node_652_A_5.1.2
~ bus2=trip_load_652_A_h_37.1.2 switch=n  phases=2 Linecode=2P_Code10

New Line.trip_line_652_A_h_38 length=50 units=ft
~ bus1=trip_node_652_A_5.1.2
~ bus2=trip_load_652_A_h_38.1.2 switch=n  phases=2 Linecode=2P_Code10

New Line.trip_line_652_A_h_39 length=50 units=ft
~ bus1=trip_node_652_A_5.1.2
~ bus2=trip_load_652_A_h_39.1.2 switch=n  phases=2 Linecode=2P_Code10

New Line.trip_line_652_A_h_40 length=50 units=ft
~ bus1=trip_node_652_A_5.1.2
~ bus2=trip_load_652_A_h_40.1.2 switch=n  phases=2 Linecode=2P_Code10

 
New Line.trip_line_611_C_h_1 length=50 units=ft
~ bus1=trip_node_611_C_1.1.2
~ bus2=trip_load_611_C_h_1.1.2 switch=n  phases=2 Linecode=2P_Code10

New Line.trip_line_611_C_h_2 length=50 units=ft
~ bus1=trip_node_611_C_1.1.2
~ bus2=trip_load_611_C_h_2.1.2 switch=n  phases=2 Linecode=2P_Code10

New Line.trip_line_611_C_h_3 length=50 units=ft
~ bus1=trip_node_611_C_1.1.2
~ bus2=trip_load_611_C_h_3.1.2 switch=n  phases=2 Linecode=2P_Code10

New Line.trip_line_611_C_h_4 length=50 units=ft
~ bus1=trip_node_611_C_1.1.2
~ bus2=trip_load_611_C_h_4.1.2 switch=n  phases=2 Linecode=2P_Code10

New Line.trip_line_611_C_h_5 length=50 units=ft
~ bus1=trip_node_611_C_1.1.2
~ bus2=trip_load_611_C_h_5.1.2 switch=n  phases=2 Linecode=2P_Code10

New Line.trip_line_611_C_h_6 length=50 units=ft
~ bus1=trip_node_611_C_1.1.2
~ bus2=trip_load_611_C_h_6.1.2 switch=n  phases=2 Linecode=2P_Code10

New Line.trip_line_611_C_h_7 length=50 units=ft
~ bus1=trip_node_611_C_1.1.2
~ bus2=trip_load_611_C_h_7.1.2 switch=n  phases=2 Linecode=2P_Code10

New Line.trip_line_611_C_h_8 length=50 units=ft
~ bus1=trip_node_611_C_1.1.2
~ bus2=trip_load_611_C_h_8.1.2 switch=n  phases=2 Linecode=2P_Code10

 
New Line.trip_line_611_C_h_9 length=50 units=ft
~ bus1=trip_node_611_C_2.1.2
~ bus2=trip_load_611_C_h_9.1.2 switch=n  phases=2 Linecode=2P_Code10

New Line.trip_line_611_C_h_10 length=50 units=ft
~ bus1=trip_node_611_C_2.1.2
~ bus2=trip_load_611_C_h_10.1.2 switch=n  phases=2 Linecode=2P_Code10

New Line.trip_line_611_C_h_11 length=50 units=ft
~ bus1=trip_node_611_C_2.1.2
~ bus2=trip_load_611_C_h_11.1.2 switch=n  phases=2 Linecode=2P_Code10

New Line.trip_line_611_C_h_12 length=50 units=ft
~ bus1=trip_node_611_C_2.1.2
~ bus2=trip_load_611_C_h_12.1.2 switch=n  phases=2 Linecode=2P_Code10

New Line.trip_line_611_C_h_13 length=50 units=ft
~ bus1=trip_node_611_C_2.1.2
~ bus2=trip_load_611_C_h_13.1.2 switch=n  phases=2 Linecode=2P_Code10

New Line.trip_line_611_C_h_14 length=50 units=ft
~ bus1=trip_node_611_C_2.1.2
~ bus2=trip_load_611_C_h_14.1.2 switch=n  phases=2 Linecode=2P_Code10

New Line.trip_line_611_C_h_15 length=50 units=ft
~ bus1=trip_node_611_C_2.1.2
~ bus2=trip_load_611_C_h_15.1.2 switch=n  phases=2 Linecode=2P_Code10

New Line.trip_line_611_C_h_16 length=50 units=ft
~ bus1=trip_node_611_C_2.1.2
~ bus2=trip_load_611_C_h_16.1.2 switch=n  phases=2 Linecode=2P_Code10

 
New Line.trip_line_611_C_h_17 length=50 units=ft
~ bus1=trip_node_611_C_3.1.2
~ bus2=trip_load_611_C_h_17.1.2 switch=n  phases=2 Linecode=2P_Code10

New Line.trip_line_611_C_h_18 length=50 units=ft
~ bus1=trip_node_611_C_3.1.2
~ bus2=trip_load_611_C_h_18.1.2 switch=n  phases=2 Linecode=2P_Code10

New Line.trip_line_611_C_h_19 length=50 units=ft
~ bus1=trip_node_611_C_3.1.2
~ bus2=trip_load_611_C_h_19.1.2 switch=n  phases=2 Linecode=2P_Code10

New Line.trip_line_611_C_h_20 length=50 units=ft
~ bus1=trip_node_611_C_3.1.2
~ bus2=trip_load_611_C_h_20.1.2 switch=n  phases=2 Linecode=2P_Code10

New Line.trip_line_611_C_h_21 length=50 units=ft
~ bus1=trip_node_611_C_3.1.2
~ bus2=trip_load_611_C_h_21.1.2 switch=n  phases=2 Linecode=2P_Code10

New Line.trip_line_611_C_h_22 length=50 units=ft
~ bus1=trip_node_611_C_3.1.2
~ bus2=trip_load_611_C_h_22.1.2 switch=n  phases=2 Linecode=2P_Code10

New Line.trip_line_611_C_h_23 length=50 units=ft
~ bus1=trip_node_611_C_3.1.2
~ bus2=trip_load_611_C_h_23.1.2 switch=n  phases=2 Linecode=2P_Code10

New Line.trip_line_611_C_h_24 length=50 units=ft
~ bus1=trip_node_611_C_3.1.2
~ bus2=trip_load_611_C_h_24.1.2 switch=n  phases=2 Linecode=2P_Code10

 
New Line.trip_line_611_C_h_25 length=50 units=ft
~ bus1=trip_node_611_C_4.1.2
~ bus2=trip_load_611_C_h_25.1.2 switch=n  phases=2 Linecode=2P_Code10

New Line.trip_line_611_C_h_26 length=50 units=ft
~ bus1=trip_node_611_C_4.1.2
~ bus2=trip_load_611_C_h_26.1.2 switch=n  phases=2 Linecode=2P_Code10

New Line.trip_line_611_C_h_27 length=50 units=ft
~ bus1=trip_node_611_C_4.1.2
~ bus2=trip_load_611_C_h_27.1.2 switch=n  phases=2 Linecode=2P_Code10

New Line.trip_line_611_C_h_28 length=50 units=ft
~ bus1=trip_node_611_C_4.1.2
~ bus2=trip_load_611_C_h_28.1.2 switch=n  phases=2 Linecode=2P_Code10

New Line.trip_line_611_C_h_29 length=50 units=ft
~ bus1=trip_node_611_C_4.1.2
~ bus2=trip_load_611_C_h_29.1.2 switch=n  phases=2 Linecode=2P_Code10

New Line.trip_line_611_C_h_30 length=50 units=ft
~ bus1=trip_node_611_C_4.1.2
~ bus2=trip_load_611_C_h_30.1.2 switch=n  phases=2 Linecode=2P_Code10

New Line.trip_line_611_C_h_31 length=50 units=ft
~ bus1=trip_node_611_C_4.1.2
~ bus2=trip_load_611_C_h_31.1.2 switch=n  phases=2 Linecode=2P_Code10

New Line.trip_line_611_C_h_32 length=50 units=ft
~ bus1=trip_node_611_C_4.1.2
~ bus2=trip_load_611_C_h_32.1.2 switch=n  phases=2 Linecode=2P_Code10

 
New Line.trip_line_611_C_h_33 length=50 units=ft
~ bus1=trip_node_611_C_5.1.2
~ bus2=trip_load_611_C_h_33.1.2 switch=n  phases=2 Linecode=2P_Code10

New Line.trip_line_611_C_h_34 length=50 units=ft
~ bus1=trip_node_611_C_5.1.2
~ bus2=trip_load_611_C_h_34.1.2 switch=n  phases=2 Linecode=2P_Code10

New Line.trip_line_611_C_h_35 length=50 units=ft
~ bus1=trip_node_611_C_5.1.2
~ bus2=trip_load_611_C_h_35.1.2 switch=n  phases=2 Linecode=2P_Code10

New Line.trip_line_611_C_h_36 length=50 units=ft
~ bus1=trip_node_611_C_5.1.2
~ bus2=trip_load_611_C_h_36.1.2 switch=n  phases=2 Linecode=2P_Code10

New Line.trip_line_611_C_h_37 length=50 units=ft
~ bus1=trip_node_611_C_5.1.2
~ bus2=trip_load_611_C_h_37.1.2 switch=n  phases=2 Linecode=2P_Code10

New Line.trip_line_611_C_h_38 length=50 units=ft
~ bus1=trip_node_611_C_5.1.2
~ bus2=trip_load_611_C_h_38.1.2 switch=n  phases=2 Linecode=2P_Code10

New Line.trip_line_611_C_h_39 length=50 units=ft
~ bus1=trip_node_611_C_5.1.2
~ bus2=trip_load_611_C_h_39.1.2 switch=n  phases=2 Linecode=2P_Code10

New Line.trip_line_611_C_h_40 length=50 units=ft
~ bus1=trip_node_611_C_5.1.2
~ bus2=trip_load_611_C_h_40.1.2 switch=n  phases=2 Linecode=2P_Code10

 
New Line.trip_line_684_C_h_1 length=50 units=ft
~ bus1=trip_node_684_C_1.1.2
~ bus2=trip_load_684_C_h_1.1.2 switch=n  phases=2 Linecode=2P_Code10

New Line.trip_line_684_C_h_2 length=50 units=ft
~ bus1=trip_node_684_C_1.1.2
~ bus2=trip_load_684_C_h_2.1.2 switch=n  phases=2 Linecode=2P_Code10

New Line.trip_line_684_C_h_3 length=50 units=ft
~ bus1=trip_node_684_C_1.1.2
~ bus2=trip_load_684_C_h_3.1.2 switch=n  phases=2 Linecode=2P_Code10

New Line.trip_line_684_C_h_4 length=50 units=ft
~ bus1=trip_node_684_C_1.1.2
~ bus2=trip_load_684_C_h_4.1.2 switch=n  phases=2 Linecode=2P_Code10

New Line.trip_line_684_C_h_5 length=50 units=ft
~ bus1=trip_node_684_C_1.1.2
~ bus2=trip_load_684_C_h_5.1.2 switch=n  phases=2 Linecode=2P_Code10

New Line.trip_line_684_C_h_6 length=50 units=ft
~ bus1=trip_node_684_C_1.1.2
~ bus2=trip_load_684_C_h_6.1.2 switch=n  phases=2 Linecode=2P_Code10

New Line.trip_line_684_C_h_7 length=50 units=ft
~ bus1=trip_node_684_C_1.1.2
~ bus2=trip_load_684_C_h_7.1.2 switch=n  phases=2 Linecode=2P_Code10

New Line.trip_line_684_C_h_8 length=50 units=ft
~ bus1=trip_node_684_C_1.1.2
~ bus2=trip_load_684_C_h_8.1.2 switch=n  phases=2 Linecode=2P_Code10

 
New Line.trip_line_684_C_h_9 length=50 units=ft
~ bus1=trip_node_684_C_2.1.2
~ bus2=trip_load_684_C_h_9.1.2 switch=n  phases=2 Linecode=2P_Code10

New Line.trip_line_684_C_h_10 length=50 units=ft
~ bus1=trip_node_684_C_2.1.2
~ bus2=trip_load_684_C_h_10.1.2 switch=n  phases=2 Linecode=2P_Code10

New Line.trip_line_684_C_h_11 length=50 units=ft
~ bus1=trip_node_684_C_2.1.2
~ bus2=trip_load_684_C_h_11.1.2 switch=n  phases=2 Linecode=2P_Code10

New Line.trip_line_684_C_h_12 length=50 units=ft
~ bus1=trip_node_684_C_2.1.2
~ bus2=trip_load_684_C_h_12.1.2 switch=n  phases=2 Linecode=2P_Code10

New Line.trip_line_684_C_h_13 length=50 units=ft
~ bus1=trip_node_684_C_2.1.2
~ bus2=trip_load_684_C_h_13.1.2 switch=n  phases=2 Linecode=2P_Code10

New Line.trip_line_684_C_h_14 length=50 units=ft
~ bus1=trip_node_684_C_2.1.2
~ bus2=trip_load_684_C_h_14.1.2 switch=n  phases=2 Linecode=2P_Code10

New Line.trip_line_684_C_h_15 length=50 units=ft
~ bus1=trip_node_684_C_2.1.2
~ bus2=trip_load_684_C_h_15.1.2 switch=n  phases=2 Linecode=2P_Code10

New Line.trip_line_684_C_h_16 length=50 units=ft
~ bus1=trip_node_684_C_2.1.2
~ bus2=trip_load_684_C_h_16.1.2 switch=n  phases=2 Linecode=2P_Code10

 
New Line.trip_line_684_C_h_17 length=50 units=ft
~ bus1=trip_node_684_C_3.1.2
~ bus2=trip_load_684_C_h_17.1.2 switch=n  phases=2 Linecode=2P_Code10

New Line.trip_line_684_C_h_18 length=50 units=ft
~ bus1=trip_node_684_C_3.1.2
~ bus2=trip_load_684_C_h_18.1.2 switch=n  phases=2 Linecode=2P_Code10

New Line.trip_line_684_C_h_19 length=50 units=ft
~ bus1=trip_node_684_C_3.1.2
~ bus2=trip_load_684_C_h_19.1.2 switch=n  phases=2 Linecode=2P_Code10

New Line.trip_line_684_C_h_20 length=50 units=ft
~ bus1=trip_node_684_C_3.1.2
~ bus2=trip_load_684_C_h_20.1.2 switch=n  phases=2 Linecode=2P_Code10

New Line.trip_line_684_C_h_21 length=50 units=ft
~ bus1=trip_node_684_C_3.1.2
~ bus2=trip_load_684_C_h_21.1.2 switch=n  phases=2 Linecode=2P_Code10

New Line.trip_line_684_C_h_22 length=50 units=ft
~ bus1=trip_node_684_C_3.1.2
~ bus2=trip_load_684_C_h_22.1.2 switch=n  phases=2 Linecode=2P_Code10

New Line.trip_line_684_C_h_23 length=50 units=ft
~ bus1=trip_node_684_C_3.1.2
~ bus2=trip_load_684_C_h_23.1.2 switch=n  phases=2 Linecode=2P_Code10

New Line.trip_line_684_C_h_24 length=50 units=ft
~ bus1=trip_node_684_C_3.1.2
~ bus2=trip_load_684_C_h_24.1.2 switch=n  phases=2 Linecode=2P_Code10

 
New Line.trip_line_684_C_h_25 length=50 units=ft
~ bus1=trip_node_684_C_4.1.2
~ bus2=trip_load_684_C_h_25.1.2 switch=n  phases=2 Linecode=2P_Code10

New Line.trip_line_684_C_h_26 length=50 units=ft
~ bus1=trip_node_684_C_4.1.2
~ bus2=trip_load_684_C_h_26.1.2 switch=n  phases=2 Linecode=2P_Code10

New Line.trip_line_684_C_h_27 length=50 units=ft
~ bus1=trip_node_684_C_4.1.2
~ bus2=trip_load_684_C_h_27.1.2 switch=n  phases=2 Linecode=2P_Code10

New Line.trip_line_684_C_h_28 length=50 units=ft
~ bus1=trip_node_684_C_4.1.2
~ bus2=trip_load_684_C_h_28.1.2 switch=n  phases=2 Linecode=2P_Code10

New Line.trip_line_684_C_h_29 length=50 units=ft
~ bus1=trip_node_684_C_4.1.2
~ bus2=trip_load_684_C_h_29.1.2 switch=n  phases=2 Linecode=2P_Code10

New Line.trip_line_684_C_h_30 length=50 units=ft
~ bus1=trip_node_684_C_4.1.2
~ bus2=trip_load_684_C_h_30.1.2 switch=n  phases=2 Linecode=2P_Code10

New Line.trip_line_684_C_h_31 length=50 units=ft
~ bus1=trip_node_684_C_4.1.2
~ bus2=trip_load_684_C_h_31.1.2 switch=n  phases=2 Linecode=2P_Code10

New Line.trip_line_684_C_h_32 length=50 units=ft
~ bus1=trip_node_684_C_4.1.2
~ bus2=trip_load_684_C_h_32.1.2 switch=n  phases=2 Linecode=2P_Code10

 
New Line.trip_line_684_C_h_33 length=50 units=ft
~ bus1=trip_node_684_C_5.1.2
~ bus2=trip_load_684_C_h_33.1.2 switch=n  phases=2 Linecode=2P_Code10

New Line.trip_line_684_C_h_34 length=50 units=ft
~ bus1=trip_node_684_C_5.1.2
~ bus2=trip_load_684_C_h_34.1.2 switch=n  phases=2 Linecode=2P_Code10

New Line.trip_line_684_C_h_35 length=50 units=ft
~ bus1=trip_node_684_C_5.1.2
~ bus2=trip_load_684_C_h_35.1.2 switch=n  phases=2 Linecode=2P_Code10

New Line.trip_line_684_C_h_36 length=50 units=ft
~ bus1=trip_node_684_C_5.1.2
~ bus2=trip_load_684_C_h_36.1.2 switch=n  phases=2 Linecode=2P_Code10

New Line.trip_line_684_C_h_37 length=50 units=ft
~ bus1=trip_node_684_C_5.1.2
~ bus2=trip_load_684_C_h_37.1.2 switch=n  phases=2 Linecode=2P_Code10

New Line.trip_line_684_C_h_38 length=50 units=ft
~ bus1=trip_node_684_C_5.1.2
~ bus2=trip_load_684_C_h_38.1.2 switch=n  phases=2 Linecode=2P_Code10

New Line.trip_line_684_C_h_39 length=50 units=ft
~ bus1=trip_node_684_C_5.1.2
~ bus2=trip_load_684_C_h_39.1.2 switch=n  phases=2 Linecode=2P_Code10

New Line.trip_line_684_C_h_40 length=50 units=ft
~ bus1=trip_node_684_C_5.1.2
~ bus2=trip_load_684_C_h_40.1.2 switch=n  phases=2 Linecode=2P_Code10

 
New Line.trip_line_684_A_h_1 length=50 units=ft
~ bus1=trip_node_684_A_1.1.2
~ bus2=trip_load_684_A_h_1.1.2 switch=n  phases=2 Linecode=2P_Code10

New Line.trip_line_684_A_h_2 length=50 units=ft
~ bus1=trip_node_684_A_1.1.2
~ bus2=trip_load_684_A_h_2.1.2 switch=n  phases=2 Linecode=2P_Code10

New Line.trip_line_684_A_h_3 length=50 units=ft
~ bus1=trip_node_684_A_1.1.2
~ bus2=trip_load_684_A_h_3.1.2 switch=n  phases=2 Linecode=2P_Code10

New Line.trip_line_684_A_h_4 length=50 units=ft
~ bus1=trip_node_684_A_1.1.2
~ bus2=trip_load_684_A_h_4.1.2 switch=n  phases=2 Linecode=2P_Code10

New Line.trip_line_684_A_h_5 length=50 units=ft
~ bus1=trip_node_684_A_1.1.2
~ bus2=trip_load_684_A_h_5.1.2 switch=n  phases=2 Linecode=2P_Code10

New Line.trip_line_684_A_h_6 length=50 units=ft
~ bus1=trip_node_684_A_1.1.2
~ bus2=trip_load_684_A_h_6.1.2 switch=n  phases=2 Linecode=2P_Code10

New Line.trip_line_684_A_h_7 length=50 units=ft
~ bus1=trip_node_684_A_1.1.2
~ bus2=trip_load_684_A_h_7.1.2 switch=n  phases=2 Linecode=2P_Code10

New Line.trip_line_684_A_h_8 length=50 units=ft
~ bus1=trip_node_684_A_1.1.2
~ bus2=trip_load_684_A_h_8.1.2 switch=n  phases=2 Linecode=2P_Code10

 
New Line.trip_line_684_A_h_9 length=50 units=ft
~ bus1=trip_node_684_A_2.1.2
~ bus2=trip_load_684_A_h_9.1.2 switch=n  phases=2 Linecode=2P_Code10

New Line.trip_line_684_A_h_10 length=50 units=ft
~ bus1=trip_node_684_A_2.1.2
~ bus2=trip_load_684_A_h_10.1.2 switch=n  phases=2 Linecode=2P_Code10

New Line.trip_line_684_A_h_11 length=50 units=ft
~ bus1=trip_node_684_A_2.1.2
~ bus2=trip_load_684_A_h_11.1.2 switch=n  phases=2 Linecode=2P_Code10

New Line.trip_line_684_A_h_12 length=50 units=ft
~ bus1=trip_node_684_A_2.1.2
~ bus2=trip_load_684_A_h_12.1.2 switch=n  phases=2 Linecode=2P_Code10

New Line.trip_line_684_A_h_13 length=50 units=ft
~ bus1=trip_node_684_A_2.1.2
~ bus2=trip_load_684_A_h_13.1.2 switch=n  phases=2 Linecode=2P_Code10

New Line.trip_line_684_A_h_14 length=50 units=ft
~ bus1=trip_node_684_A_2.1.2
~ bus2=trip_load_684_A_h_14.1.2 switch=n  phases=2 Linecode=2P_Code10

New Line.trip_line_684_A_h_15 length=50 units=ft
~ bus1=trip_node_684_A_2.1.2
~ bus2=trip_load_684_A_h_15.1.2 switch=n  phases=2 Linecode=2P_Code10

New Line.trip_line_684_A_h_16 length=50 units=ft
~ bus1=trip_node_684_A_2.1.2
~ bus2=trip_load_684_A_h_16.1.2 switch=n  phases=2 Linecode=2P_Code10

 
New Line.trip_line_684_A_h_17 length=50 units=ft
~ bus1=trip_node_684_A_3.1.2
~ bus2=trip_load_684_A_h_17.1.2 switch=n  phases=2 Linecode=2P_Code10

New Line.trip_line_684_A_h_18 length=50 units=ft
~ bus1=trip_node_684_A_3.1.2
~ bus2=trip_load_684_A_h_18.1.2 switch=n  phases=2 Linecode=2P_Code10

New Line.trip_line_684_A_h_19 length=50 units=ft
~ bus1=trip_node_684_A_3.1.2
~ bus2=trip_load_684_A_h_19.1.2 switch=n  phases=2 Linecode=2P_Code10

New Line.trip_line_684_A_h_20 length=50 units=ft
~ bus1=trip_node_684_A_3.1.2
~ bus2=trip_load_684_A_h_20.1.2 switch=n  phases=2 Linecode=2P_Code10

New Line.trip_line_684_A_h_21 length=50 units=ft
~ bus1=trip_node_684_A_3.1.2
~ bus2=trip_load_684_A_h_21.1.2 switch=n  phases=2 Linecode=2P_Code10

New Line.trip_line_684_A_h_22 length=50 units=ft
~ bus1=trip_node_684_A_3.1.2
~ bus2=trip_load_684_A_h_22.1.2 switch=n  phases=2 Linecode=2P_Code10

New Line.trip_line_684_A_h_23 length=50 units=ft
~ bus1=trip_node_684_A_3.1.2
~ bus2=trip_load_684_A_h_23.1.2 switch=n  phases=2 Linecode=2P_Code10

New Line.trip_line_684_A_h_24 length=50 units=ft
~ bus1=trip_node_684_A_3.1.2
~ bus2=trip_load_684_A_h_24.1.2 switch=n  phases=2 Linecode=2P_Code10

 
New Line.trip_line_684_A_h_25 length=50 units=ft
~ bus1=trip_node_684_A_4.1.2
~ bus2=trip_load_684_A_h_25.1.2 switch=n  phases=2 Linecode=2P_Code10

New Line.trip_line_684_A_h_26 length=50 units=ft
~ bus1=trip_node_684_A_4.1.2
~ bus2=trip_load_684_A_h_26.1.2 switch=n  phases=2 Linecode=2P_Code10

New Line.trip_line_684_A_h_27 length=50 units=ft
~ bus1=trip_node_684_A_4.1.2
~ bus2=trip_load_684_A_h_27.1.2 switch=n  phases=2 Linecode=2P_Code10

New Line.trip_line_684_A_h_28 length=50 units=ft
~ bus1=trip_node_684_A_4.1.2
~ bus2=trip_load_684_A_h_28.1.2 switch=n  phases=2 Linecode=2P_Code10

New Line.trip_line_684_A_h_29 length=50 units=ft
~ bus1=trip_node_684_A_4.1.2
~ bus2=trip_load_684_A_h_29.1.2 switch=n  phases=2 Linecode=2P_Code10

New Line.trip_line_684_A_h_30 length=50 units=ft
~ bus1=trip_node_684_A_4.1.2
~ bus2=trip_load_684_A_h_30.1.2 switch=n  phases=2 Linecode=2P_Code10

New Line.trip_line_684_A_h_31 length=50 units=ft
~ bus1=trip_node_684_A_4.1.2
~ bus2=trip_load_684_A_h_31.1.2 switch=n  phases=2 Linecode=2P_Code10

New Line.trip_line_684_A_h_32 length=50 units=ft
~ bus1=trip_node_684_A_4.1.2
~ bus2=trip_load_684_A_h_32.1.2 switch=n  phases=2 Linecode=2P_Code10

 
New Line.trip_line_684_A_h_33 length=50 units=ft
~ bus1=trip_node_684_A_5.1.2
~ bus2=trip_load_684_A_h_33.1.2 switch=n  phases=2 Linecode=2P_Code10

New Line.trip_line_684_A_h_34 length=50 units=ft
~ bus1=trip_node_684_A_5.1.2
~ bus2=trip_load_684_A_h_34.1.2 switch=n  phases=2 Linecode=2P_Code10

New Line.trip_line_684_A_h_35 length=50 units=ft
~ bus1=trip_node_684_A_5.1.2
~ bus2=trip_load_684_A_h_35.1.2 switch=n  phases=2 Linecode=2P_Code10

New Line.trip_line_684_A_h_36 length=50 units=ft
~ bus1=trip_node_684_A_5.1.2
~ bus2=trip_load_684_A_h_36.1.2 switch=n  phases=2 Linecode=2P_Code10

New Line.trip_line_684_A_h_37 length=50 units=ft
~ bus1=trip_node_684_A_5.1.2
~ bus2=trip_load_684_A_h_37.1.2 switch=n  phases=2 Linecode=2P_Code10

New Line.trip_line_684_A_h_38 length=50 units=ft
~ bus1=trip_node_684_A_5.1.2
~ bus2=trip_load_684_A_h_38.1.2 switch=n  phases=2 Linecode=2P_Code10

New Line.trip_line_684_A_h_39 length=50 units=ft
~ bus1=trip_node_684_A_5.1.2
~ bus2=trip_load_684_A_h_39.1.2 switch=n  phases=2 Linecode=2P_Code10

New Line.trip_line_684_A_h_40 length=50 units=ft
~ bus1=trip_node_684_A_5.1.2
~ bus2=trip_load_684_A_h_40.1.2 switch=n  phases=2 Linecode=2P_Code10

 
New Line.trip_line_645_B_h_1 length=50 units=ft
~ bus1=trip_node_645_B_1.1.2
~ bus2=trip_load_645_B_h_1.1.2 switch=n  phases=2 Linecode=2P_Code10

New Line.trip_line_645_B_h_2 length=50 units=ft
~ bus1=trip_node_645_B_1.1.2
~ bus2=trip_load_645_B_h_2.1.2 switch=n  phases=2 Linecode=2P_Code10

New Line.trip_line_645_B_h_3 length=50 units=ft
~ bus1=trip_node_645_B_1.1.2
~ bus2=trip_load_645_B_h_3.1.2 switch=n  phases=2 Linecode=2P_Code10

New Line.trip_line_645_B_h_4 length=50 units=ft
~ bus1=trip_node_645_B_1.1.2
~ bus2=trip_load_645_B_h_4.1.2 switch=n  phases=2 Linecode=2P_Code10

New Line.trip_line_645_B_h_5 length=50 units=ft
~ bus1=trip_node_645_B_1.1.2
~ bus2=trip_load_645_B_h_5.1.2 switch=n  phases=2 Linecode=2P_Code10

New Line.trip_line_645_B_h_6 length=50 units=ft
~ bus1=trip_node_645_B_1.1.2
~ bus2=trip_load_645_B_h_6.1.2 switch=n  phases=2 Linecode=2P_Code10

New Line.trip_line_645_B_h_7 length=50 units=ft
~ bus1=trip_node_645_B_1.1.2
~ bus2=trip_load_645_B_h_7.1.2 switch=n  phases=2 Linecode=2P_Code10

New Line.trip_line_645_B_h_8 length=50 units=ft
~ bus1=trip_node_645_B_1.1.2
~ bus2=trip_load_645_B_h_8.1.2 switch=n  phases=2 Linecode=2P_Code10

 
New Line.trip_line_645_B_h_9 length=50 units=ft
~ bus1=trip_node_645_B_2.1.2
~ bus2=trip_load_645_B_h_9.1.2 switch=n  phases=2 Linecode=2P_Code10

New Line.trip_line_645_B_h_10 length=50 units=ft
~ bus1=trip_node_645_B_2.1.2
~ bus2=trip_load_645_B_h_10.1.2 switch=n  phases=2 Linecode=2P_Code10

New Line.trip_line_645_B_h_11 length=50 units=ft
~ bus1=trip_node_645_B_2.1.2
~ bus2=trip_load_645_B_h_11.1.2 switch=n  phases=2 Linecode=2P_Code10

New Line.trip_line_645_B_h_12 length=50 units=ft
~ bus1=trip_node_645_B_2.1.2
~ bus2=trip_load_645_B_h_12.1.2 switch=n  phases=2 Linecode=2P_Code10

New Line.trip_line_645_B_h_13 length=50 units=ft
~ bus1=trip_node_645_B_2.1.2
~ bus2=trip_load_645_B_h_13.1.2 switch=n  phases=2 Linecode=2P_Code10

New Line.trip_line_645_B_h_14 length=50 units=ft
~ bus1=trip_node_645_B_2.1.2
~ bus2=trip_load_645_B_h_14.1.2 switch=n  phases=2 Linecode=2P_Code10

New Line.trip_line_645_B_h_15 length=50 units=ft
~ bus1=trip_node_645_B_2.1.2
~ bus2=trip_load_645_B_h_15.1.2 switch=n  phases=2 Linecode=2P_Code10

New Line.trip_line_645_B_h_16 length=50 units=ft
~ bus1=trip_node_645_B_2.1.2
~ bus2=trip_load_645_B_h_16.1.2 switch=n  phases=2 Linecode=2P_Code10

 
New Line.trip_line_645_B_h_17 length=50 units=ft
~ bus1=trip_node_645_B_3.1.2
~ bus2=trip_load_645_B_h_17.1.2 switch=n  phases=2 Linecode=2P_Code10

New Line.trip_line_645_B_h_18 length=50 units=ft
~ bus1=trip_node_645_B_3.1.2
~ bus2=trip_load_645_B_h_18.1.2 switch=n  phases=2 Linecode=2P_Code10

New Line.trip_line_645_B_h_19 length=50 units=ft
~ bus1=trip_node_645_B_3.1.2
~ bus2=trip_load_645_B_h_19.1.2 switch=n  phases=2 Linecode=2P_Code10

New Line.trip_line_645_B_h_20 length=50 units=ft
~ bus1=trip_node_645_B_3.1.2
~ bus2=trip_load_645_B_h_20.1.2 switch=n  phases=2 Linecode=2P_Code10

New Line.trip_line_645_B_h_21 length=50 units=ft
~ bus1=trip_node_645_B_3.1.2
~ bus2=trip_load_645_B_h_21.1.2 switch=n  phases=2 Linecode=2P_Code10

New Line.trip_line_645_B_h_22 length=50 units=ft
~ bus1=trip_node_645_B_3.1.2
~ bus2=trip_load_645_B_h_22.1.2 switch=n  phases=2 Linecode=2P_Code10

New Line.trip_line_645_B_h_23 length=50 units=ft
~ bus1=trip_node_645_B_3.1.2
~ bus2=trip_load_645_B_h_23.1.2 switch=n  phases=2 Linecode=2P_Code10

New Line.trip_line_645_B_h_24 length=50 units=ft
~ bus1=trip_node_645_B_3.1.2
~ bus2=trip_load_645_B_h_24.1.2 switch=n  phases=2 Linecode=2P_Code10

 
New Line.trip_line_645_B_h_25 length=50 units=ft
~ bus1=trip_node_645_B_4.1.2
~ bus2=trip_load_645_B_h_25.1.2 switch=n  phases=2 Linecode=2P_Code10

New Line.trip_line_645_B_h_26 length=50 units=ft
~ bus1=trip_node_645_B_4.1.2
~ bus2=trip_load_645_B_h_26.1.2 switch=n  phases=2 Linecode=2P_Code10

New Line.trip_line_645_B_h_27 length=50 units=ft
~ bus1=trip_node_645_B_4.1.2
~ bus2=trip_load_645_B_h_27.1.2 switch=n  phases=2 Linecode=2P_Code10

New Line.trip_line_645_B_h_28 length=50 units=ft
~ bus1=trip_node_645_B_4.1.2
~ bus2=trip_load_645_B_h_28.1.2 switch=n  phases=2 Linecode=2P_Code10

New Line.trip_line_645_B_h_29 length=50 units=ft
~ bus1=trip_node_645_B_4.1.2
~ bus2=trip_load_645_B_h_29.1.2 switch=n  phases=2 Linecode=2P_Code10

New Line.trip_line_645_B_h_30 length=50 units=ft
~ bus1=trip_node_645_B_4.1.2
~ bus2=trip_load_645_B_h_30.1.2 switch=n  phases=2 Linecode=2P_Code10

New Line.trip_line_645_B_h_31 length=50 units=ft
~ bus1=trip_node_645_B_4.1.2
~ bus2=trip_load_645_B_h_31.1.2 switch=n  phases=2 Linecode=2P_Code10

New Line.trip_line_645_B_h_32 length=50 units=ft
~ bus1=trip_node_645_B_4.1.2
~ bus2=trip_load_645_B_h_32.1.2 switch=n  phases=2 Linecode=2P_Code10

 
New Line.trip_line_645_B_h_33 length=50 units=ft
~ bus1=trip_node_645_B_5.1.2
~ bus2=trip_load_645_B_h_33.1.2 switch=n  phases=2 Linecode=2P_Code10

New Line.trip_line_645_B_h_34 length=50 units=ft
~ bus1=trip_node_645_B_5.1.2
~ bus2=trip_load_645_B_h_34.1.2 switch=n  phases=2 Linecode=2P_Code10

New Line.trip_line_645_B_h_35 length=50 units=ft
~ bus1=trip_node_645_B_5.1.2
~ bus2=trip_load_645_B_h_35.1.2 switch=n  phases=2 Linecode=2P_Code10

New Line.trip_line_645_B_h_36 length=50 units=ft
~ bus1=trip_node_645_B_5.1.2
~ bus2=trip_load_645_B_h_36.1.2 switch=n  phases=2 Linecode=2P_Code10

New Line.trip_line_645_B_h_37 length=50 units=ft
~ bus1=trip_node_645_B_5.1.2
~ bus2=trip_load_645_B_h_37.1.2 switch=n  phases=2 Linecode=2P_Code10

New Line.trip_line_645_B_h_38 length=50 units=ft
~ bus1=trip_node_645_B_5.1.2
~ bus2=trip_load_645_B_h_38.1.2 switch=n  phases=2 Linecode=2P_Code10

New Line.trip_line_645_B_h_39 length=50 units=ft
~ bus1=trip_node_645_B_5.1.2
~ bus2=trip_load_645_B_h_39.1.2 switch=n  phases=2 Linecode=2P_Code10

New Line.trip_line_645_B_h_40 length=50 units=ft
~ bus1=trip_node_645_B_5.1.2
~ bus2=trip_load_645_B_h_40.1.2 switch=n  phases=2 Linecode=2P_Code10

 
New Line.trip_line_645_C_h_1 length=50 units=ft
~ bus1=trip_node_645_C_1.1.2
~ bus2=trip_load_645_C_h_1.1.2 switch=n  phases=2 Linecode=2P_Code10

New Line.trip_line_645_C_h_2 length=50 units=ft
~ bus1=trip_node_645_C_1.1.2
~ bus2=trip_load_645_C_h_2.1.2 switch=n  phases=2 Linecode=2P_Code10

New Line.trip_line_645_C_h_3 length=50 units=ft
~ bus1=trip_node_645_C_1.1.2
~ bus2=trip_load_645_C_h_3.1.2 switch=n  phases=2 Linecode=2P_Code10

New Line.trip_line_645_C_h_4 length=50 units=ft
~ bus1=trip_node_645_C_1.1.2
~ bus2=trip_load_645_C_h_4.1.2 switch=n  phases=2 Linecode=2P_Code10

New Line.trip_line_645_C_h_5 length=50 units=ft
~ bus1=trip_node_645_C_1.1.2
~ bus2=trip_load_645_C_h_5.1.2 switch=n  phases=2 Linecode=2P_Code10

New Line.trip_line_645_C_h_6 length=50 units=ft
~ bus1=trip_node_645_C_1.1.2
~ bus2=trip_load_645_C_h_6.1.2 switch=n  phases=2 Linecode=2P_Code10

New Line.trip_line_645_C_h_7 length=50 units=ft
~ bus1=trip_node_645_C_1.1.2
~ bus2=trip_load_645_C_h_7.1.2 switch=n  phases=2 Linecode=2P_Code10

New Line.trip_line_645_C_h_8 length=50 units=ft
~ bus1=trip_node_645_C_1.1.2
~ bus2=trip_load_645_C_h_8.1.2 switch=n  phases=2 Linecode=2P_Code10

 
New Line.trip_line_645_C_h_9 length=50 units=ft
~ bus1=trip_node_645_C_2.1.2
~ bus2=trip_load_645_C_h_9.1.2 switch=n  phases=2 Linecode=2P_Code10

New Line.trip_line_645_C_h_10 length=50 units=ft
~ bus1=trip_node_645_C_2.1.2
~ bus2=trip_load_645_C_h_10.1.2 switch=n  phases=2 Linecode=2P_Code10

New Line.trip_line_645_C_h_11 length=50 units=ft
~ bus1=trip_node_645_C_2.1.2
~ bus2=trip_load_645_C_h_11.1.2 switch=n  phases=2 Linecode=2P_Code10

New Line.trip_line_645_C_h_12 length=50 units=ft
~ bus1=trip_node_645_C_2.1.2
~ bus2=trip_load_645_C_h_12.1.2 switch=n  phases=2 Linecode=2P_Code10

New Line.trip_line_645_C_h_13 length=50 units=ft
~ bus1=trip_node_645_C_2.1.2
~ bus2=trip_load_645_C_h_13.1.2 switch=n  phases=2 Linecode=2P_Code10

New Line.trip_line_645_C_h_14 length=50 units=ft
~ bus1=trip_node_645_C_2.1.2
~ bus2=trip_load_645_C_h_14.1.2 switch=n  phases=2 Linecode=2P_Code10

New Line.trip_line_645_C_h_15 length=50 units=ft
~ bus1=trip_node_645_C_2.1.2
~ bus2=trip_load_645_C_h_15.1.2 switch=n  phases=2 Linecode=2P_Code10

New Line.trip_line_645_C_h_16 length=50 units=ft
~ bus1=trip_node_645_C_2.1.2
~ bus2=trip_load_645_C_h_16.1.2 switch=n  phases=2 Linecode=2P_Code10

 
New Line.trip_line_645_C_h_17 length=50 units=ft
~ bus1=trip_node_645_C_3.1.2
~ bus2=trip_load_645_C_h_17.1.2 switch=n  phases=2 Linecode=2P_Code10

New Line.trip_line_645_C_h_18 length=50 units=ft
~ bus1=trip_node_645_C_3.1.2
~ bus2=trip_load_645_C_h_18.1.2 switch=n  phases=2 Linecode=2P_Code10

New Line.trip_line_645_C_h_19 length=50 units=ft
~ bus1=trip_node_645_C_3.1.2
~ bus2=trip_load_645_C_h_19.1.2 switch=n  phases=2 Linecode=2P_Code10

New Line.trip_line_645_C_h_20 length=50 units=ft
~ bus1=trip_node_645_C_3.1.2
~ bus2=trip_load_645_C_h_20.1.2 switch=n  phases=2 Linecode=2P_Code10

New Line.trip_line_645_C_h_21 length=50 units=ft
~ bus1=trip_node_645_C_3.1.2
~ bus2=trip_load_645_C_h_21.1.2 switch=n  phases=2 Linecode=2P_Code10

New Line.trip_line_645_C_h_22 length=50 units=ft
~ bus1=trip_node_645_C_3.1.2
~ bus2=trip_load_645_C_h_22.1.2 switch=n  phases=2 Linecode=2P_Code10

New Line.trip_line_645_C_h_23 length=50 units=ft
~ bus1=trip_node_645_C_3.1.2
~ bus2=trip_load_645_C_h_23.1.2 switch=n  phases=2 Linecode=2P_Code10

New Line.trip_line_645_C_h_24 length=50 units=ft
~ bus1=trip_node_645_C_3.1.2
~ bus2=trip_load_645_C_h_24.1.2 switch=n  phases=2 Linecode=2P_Code10

 
New Line.trip_line_645_C_h_25 length=50 units=ft
~ bus1=trip_node_645_C_4.1.2
~ bus2=trip_load_645_C_h_25.1.2 switch=n  phases=2 Linecode=2P_Code10

New Line.trip_line_645_C_h_26 length=50 units=ft
~ bus1=trip_node_645_C_4.1.2
~ bus2=trip_load_645_C_h_26.1.2 switch=n  phases=2 Linecode=2P_Code10

New Line.trip_line_645_C_h_27 length=50 units=ft
~ bus1=trip_node_645_C_4.1.2
~ bus2=trip_load_645_C_h_27.1.2 switch=n  phases=2 Linecode=2P_Code10

New Line.trip_line_645_C_h_28 length=50 units=ft
~ bus1=trip_node_645_C_4.1.2
~ bus2=trip_load_645_C_h_28.1.2 switch=n  phases=2 Linecode=2P_Code10

New Line.trip_line_645_C_h_29 length=50 units=ft
~ bus1=trip_node_645_C_4.1.2
~ bus2=trip_load_645_C_h_29.1.2 switch=n  phases=2 Linecode=2P_Code10

New Line.trip_line_645_C_h_30 length=50 units=ft
~ bus1=trip_node_645_C_4.1.2
~ bus2=trip_load_645_C_h_30.1.2 switch=n  phases=2 Linecode=2P_Code10

New Line.trip_line_645_C_h_31 length=50 units=ft
~ bus1=trip_node_645_C_4.1.2
~ bus2=trip_load_645_C_h_31.1.2 switch=n  phases=2 Linecode=2P_Code10

New Line.trip_line_645_C_h_32 length=50 units=ft
~ bus1=trip_node_645_C_4.1.2
~ bus2=trip_load_645_C_h_32.1.2 switch=n  phases=2 Linecode=2P_Code10

 
New Line.trip_line_645_C_h_33 length=50 units=ft
~ bus1=trip_node_645_C_5.1.2
~ bus2=trip_load_645_C_h_33.1.2 switch=n  phases=2 Linecode=2P_Code10

New Line.trip_line_645_C_h_34 length=50 units=ft
~ bus1=trip_node_645_C_5.1.2
~ bus2=trip_load_645_C_h_34.1.2 switch=n  phases=2 Linecode=2P_Code10

New Line.trip_line_645_C_h_35 length=50 units=ft
~ bus1=trip_node_645_C_5.1.2
~ bus2=trip_load_645_C_h_35.1.2 switch=n  phases=2 Linecode=2P_Code10

New Line.trip_line_645_C_h_36 length=50 units=ft
~ bus1=trip_node_645_C_5.1.2
~ bus2=trip_load_645_C_h_36.1.2 switch=n  phases=2 Linecode=2P_Code10

New Line.trip_line_645_C_h_37 length=50 units=ft
~ bus1=trip_node_645_C_5.1.2
~ bus2=trip_load_645_C_h_37.1.2 switch=n  phases=2 Linecode=2P_Code10

New Line.trip_line_645_C_h_38 length=50 units=ft
~ bus1=trip_node_645_C_5.1.2
~ bus2=trip_load_645_C_h_38.1.2 switch=n  phases=2 Linecode=2P_Code10

New Line.trip_line_645_C_h_39 length=50 units=ft
~ bus1=trip_node_645_C_5.1.2
~ bus2=trip_load_645_C_h_39.1.2 switch=n  phases=2 Linecode=2P_Code10

New Line.trip_line_645_C_h_40 length=50 units=ft
~ bus1=trip_node_645_C_5.1.2
~ bus2=trip_load_645_C_h_40.1.2 switch=n  phases=2 Linecode=2P_Code10

 
New Line.trip_line_633_A_h_1 length=50 units=ft
~ bus1=trip_node_633_A_1.1.2
~ bus2=trip_load_633_A_h_1.1.2 switch=n  phases=2 Linecode=2P_Code10

New Line.trip_line_633_A_h_2 length=50 units=ft
~ bus1=trip_node_633_A_1.1.2
~ bus2=trip_load_633_A_h_2.1.2 switch=n  phases=2 Linecode=2P_Code10

New Line.trip_line_633_A_h_3 length=50 units=ft
~ bus1=trip_node_633_A_1.1.2
~ bus2=trip_load_633_A_h_3.1.2 switch=n  phases=2 Linecode=2P_Code10

New Line.trip_line_633_A_h_4 length=50 units=ft
~ bus1=trip_node_633_A_1.1.2
~ bus2=trip_load_633_A_h_4.1.2 switch=n  phases=2 Linecode=2P_Code10

New Line.trip_line_633_A_h_5 length=50 units=ft
~ bus1=trip_node_633_A_1.1.2
~ bus2=trip_load_633_A_h_5.1.2 switch=n  phases=2 Linecode=2P_Code10

New Line.trip_line_633_A_h_6 length=50 units=ft
~ bus1=trip_node_633_A_1.1.2
~ bus2=trip_load_633_A_h_6.1.2 switch=n  phases=2 Linecode=2P_Code10

New Line.trip_line_633_A_h_7 length=50 units=ft
~ bus1=trip_node_633_A_1.1.2
~ bus2=trip_load_633_A_h_7.1.2 switch=n  phases=2 Linecode=2P_Code10

New Line.trip_line_633_A_h_8 length=50 units=ft
~ bus1=trip_node_633_A_1.1.2
~ bus2=trip_load_633_A_h_8.1.2 switch=n  phases=2 Linecode=2P_Code10

 
New Line.trip_line_633_A_h_9 length=50 units=ft
~ bus1=trip_node_633_A_2.1.2
~ bus2=trip_load_633_A_h_9.1.2 switch=n  phases=2 Linecode=2P_Code10

New Line.trip_line_633_A_h_10 length=50 units=ft
~ bus1=trip_node_633_A_2.1.2
~ bus2=trip_load_633_A_h_10.1.2 switch=n  phases=2 Linecode=2P_Code10

New Line.trip_line_633_A_h_11 length=50 units=ft
~ bus1=trip_node_633_A_2.1.2
~ bus2=trip_load_633_A_h_11.1.2 switch=n  phases=2 Linecode=2P_Code10

New Line.trip_line_633_A_h_12 length=50 units=ft
~ bus1=trip_node_633_A_2.1.2
~ bus2=trip_load_633_A_h_12.1.2 switch=n  phases=2 Linecode=2P_Code10

New Line.trip_line_633_A_h_13 length=50 units=ft
~ bus1=trip_node_633_A_2.1.2
~ bus2=trip_load_633_A_h_13.1.2 switch=n  phases=2 Linecode=2P_Code10

New Line.trip_line_633_A_h_14 length=50 units=ft
~ bus1=trip_node_633_A_2.1.2
~ bus2=trip_load_633_A_h_14.1.2 switch=n  phases=2 Linecode=2P_Code10

New Line.trip_line_633_A_h_15 length=50 units=ft
~ bus1=trip_node_633_A_2.1.2
~ bus2=trip_load_633_A_h_15.1.2 switch=n  phases=2 Linecode=2P_Code10

New Line.trip_line_633_A_h_16 length=50 units=ft
~ bus1=trip_node_633_A_2.1.2
~ bus2=trip_load_633_A_h_16.1.2 switch=n  phases=2 Linecode=2P_Code10

 
New Line.trip_line_633_A_h_17 length=50 units=ft
~ bus1=trip_node_633_A_3.1.2
~ bus2=trip_load_633_A_h_17.1.2 switch=n  phases=2 Linecode=2P_Code10

New Line.trip_line_633_A_h_18 length=50 units=ft
~ bus1=trip_node_633_A_3.1.2
~ bus2=trip_load_633_A_h_18.1.2 switch=n  phases=2 Linecode=2P_Code10

New Line.trip_line_633_A_h_19 length=50 units=ft
~ bus1=trip_node_633_A_3.1.2
~ bus2=trip_load_633_A_h_19.1.2 switch=n  phases=2 Linecode=2P_Code10

New Line.trip_line_633_A_h_20 length=50 units=ft
~ bus1=trip_node_633_A_3.1.2
~ bus2=trip_load_633_A_h_20.1.2 switch=n  phases=2 Linecode=2P_Code10

New Line.trip_line_633_A_h_21 length=50 units=ft
~ bus1=trip_node_633_A_3.1.2
~ bus2=trip_load_633_A_h_21.1.2 switch=n  phases=2 Linecode=2P_Code10

New Line.trip_line_633_A_h_22 length=50 units=ft
~ bus1=trip_node_633_A_3.1.2
~ bus2=trip_load_633_A_h_22.1.2 switch=n  phases=2 Linecode=2P_Code10

New Line.trip_line_633_A_h_23 length=50 units=ft
~ bus1=trip_node_633_A_3.1.2
~ bus2=trip_load_633_A_h_23.1.2 switch=n  phases=2 Linecode=2P_Code10

New Line.trip_line_633_A_h_24 length=50 units=ft
~ bus1=trip_node_633_A_3.1.2
~ bus2=trip_load_633_A_h_24.1.2 switch=n  phases=2 Linecode=2P_Code10

 
New Line.trip_line_633_A_h_25 length=50 units=ft
~ bus1=trip_node_633_A_4.1.2
~ bus2=trip_load_633_A_h_25.1.2 switch=n  phases=2 Linecode=2P_Code10

New Line.trip_line_633_A_h_26 length=50 units=ft
~ bus1=trip_node_633_A_4.1.2
~ bus2=trip_load_633_A_h_26.1.2 switch=n  phases=2 Linecode=2P_Code10

New Line.trip_line_633_A_h_27 length=50 units=ft
~ bus1=trip_node_633_A_4.1.2
~ bus2=trip_load_633_A_h_27.1.2 switch=n  phases=2 Linecode=2P_Code10

New Line.trip_line_633_A_h_28 length=50 units=ft
~ bus1=trip_node_633_A_4.1.2
~ bus2=trip_load_633_A_h_28.1.2 switch=n  phases=2 Linecode=2P_Code10

New Line.trip_line_633_A_h_29 length=50 units=ft
~ bus1=trip_node_633_A_4.1.2
~ bus2=trip_load_633_A_h_29.1.2 switch=n  phases=2 Linecode=2P_Code10

New Line.trip_line_633_A_h_30 length=50 units=ft
~ bus1=trip_node_633_A_4.1.2
~ bus2=trip_load_633_A_h_30.1.2 switch=n  phases=2 Linecode=2P_Code10

New Line.trip_line_633_A_h_31 length=50 units=ft
~ bus1=trip_node_633_A_4.1.2
~ bus2=trip_load_633_A_h_31.1.2 switch=n  phases=2 Linecode=2P_Code10

New Line.trip_line_633_A_h_32 length=50 units=ft
~ bus1=trip_node_633_A_4.1.2
~ bus2=trip_load_633_A_h_32.1.2 switch=n  phases=2 Linecode=2P_Code10

 
New Line.trip_line_633_A_h_33 length=50 units=ft
~ bus1=trip_node_633_A_5.1.2
~ bus2=trip_load_633_A_h_33.1.2 switch=n  phases=2 Linecode=2P_Code10

New Line.trip_line_633_A_h_34 length=50 units=ft
~ bus1=trip_node_633_A_5.1.2
~ bus2=trip_load_633_A_h_34.1.2 switch=n  phases=2 Linecode=2P_Code10

New Line.trip_line_633_A_h_35 length=50 units=ft
~ bus1=trip_node_633_A_5.1.2
~ bus2=trip_load_633_A_h_35.1.2 switch=n  phases=2 Linecode=2P_Code10

New Line.trip_line_633_A_h_36 length=50 units=ft
~ bus1=trip_node_633_A_5.1.2
~ bus2=trip_load_633_A_h_36.1.2 switch=n  phases=2 Linecode=2P_Code10

New Line.trip_line_633_A_h_37 length=50 units=ft
~ bus1=trip_node_633_A_5.1.2
~ bus2=trip_load_633_A_h_37.1.2 switch=n  phases=2 Linecode=2P_Code10

New Line.trip_line_633_A_h_38 length=50 units=ft
~ bus1=trip_node_633_A_5.1.2
~ bus2=trip_load_633_A_h_38.1.2 switch=n  phases=2 Linecode=2P_Code10

New Line.trip_line_633_A_h_39 length=50 units=ft
~ bus1=trip_node_633_A_5.1.2
~ bus2=trip_load_633_A_h_39.1.2 switch=n  phases=2 Linecode=2P_Code10

New Line.trip_line_633_A_h_40 length=50 units=ft
~ bus1=trip_node_633_A_5.1.2
~ bus2=trip_load_633_A_h_40.1.2 switch=n  phases=2 Linecode=2P_Code10

 
New Line.trip_line_633_B_h_1 length=50 units=ft
~ bus1=trip_node_633_B_1.1.2
~ bus2=trip_load_633_B_h_1.1.2 switch=n  phases=2 Linecode=2P_Code10

New Line.trip_line_633_B_h_2 length=50 units=ft
~ bus1=trip_node_633_B_1.1.2
~ bus2=trip_load_633_B_h_2.1.2 switch=n  phases=2 Linecode=2P_Code10

New Line.trip_line_633_B_h_3 length=50 units=ft
~ bus1=trip_node_633_B_1.1.2
~ bus2=trip_load_633_B_h_3.1.2 switch=n  phases=2 Linecode=2P_Code10

New Line.trip_line_633_B_h_4 length=50 units=ft
~ bus1=trip_node_633_B_1.1.2
~ bus2=trip_load_633_B_h_4.1.2 switch=n  phases=2 Linecode=2P_Code10

New Line.trip_line_633_B_h_5 length=50 units=ft
~ bus1=trip_node_633_B_1.1.2
~ bus2=trip_load_633_B_h_5.1.2 switch=n  phases=2 Linecode=2P_Code10

New Line.trip_line_633_B_h_6 length=50 units=ft
~ bus1=trip_node_633_B_1.1.2
~ bus2=trip_load_633_B_h_6.1.2 switch=n  phases=2 Linecode=2P_Code10

New Line.trip_line_633_B_h_7 length=50 units=ft
~ bus1=trip_node_633_B_1.1.2
~ bus2=trip_load_633_B_h_7.1.2 switch=n  phases=2 Linecode=2P_Code10

New Line.trip_line_633_B_h_8 length=50 units=ft
~ bus1=trip_node_633_B_1.1.2
~ bus2=trip_load_633_B_h_8.1.2 switch=n  phases=2 Linecode=2P_Code10

 
New Line.trip_line_633_B_h_9 length=50 units=ft
~ bus1=trip_node_633_B_2.1.2
~ bus2=trip_load_633_B_h_9.1.2 switch=n  phases=2 Linecode=2P_Code10

New Line.trip_line_633_B_h_10 length=50 units=ft
~ bus1=trip_node_633_B_2.1.2
~ bus2=trip_load_633_B_h_10.1.2 switch=n  phases=2 Linecode=2P_Code10

New Line.trip_line_633_B_h_11 length=50 units=ft
~ bus1=trip_node_633_B_2.1.2
~ bus2=trip_load_633_B_h_11.1.2 switch=n  phases=2 Linecode=2P_Code10

New Line.trip_line_633_B_h_12 length=50 units=ft
~ bus1=trip_node_633_B_2.1.2
~ bus2=trip_load_633_B_h_12.1.2 switch=n  phases=2 Linecode=2P_Code10

New Line.trip_line_633_B_h_13 length=50 units=ft
~ bus1=trip_node_633_B_2.1.2
~ bus2=trip_load_633_B_h_13.1.2 switch=n  phases=2 Linecode=2P_Code10

New Line.trip_line_633_B_h_14 length=50 units=ft
~ bus1=trip_node_633_B_2.1.2
~ bus2=trip_load_633_B_h_14.1.2 switch=n  phases=2 Linecode=2P_Code10

New Line.trip_line_633_B_h_15 length=50 units=ft
~ bus1=trip_node_633_B_2.1.2
~ bus2=trip_load_633_B_h_15.1.2 switch=n  phases=2 Linecode=2P_Code10

New Line.trip_line_633_B_h_16 length=50 units=ft
~ bus1=trip_node_633_B_2.1.2
~ bus2=trip_load_633_B_h_16.1.2 switch=n  phases=2 Linecode=2P_Code10

 
New Line.trip_line_633_B_h_17 length=50 units=ft
~ bus1=trip_node_633_B_3.1.2
~ bus2=trip_load_633_B_h_17.1.2 switch=n  phases=2 Linecode=2P_Code10

New Line.trip_line_633_B_h_18 length=50 units=ft
~ bus1=trip_node_633_B_3.1.2
~ bus2=trip_load_633_B_h_18.1.2 switch=n  phases=2 Linecode=2P_Code10

New Line.trip_line_633_B_h_19 length=50 units=ft
~ bus1=trip_node_633_B_3.1.2
~ bus2=trip_load_633_B_h_19.1.2 switch=n  phases=2 Linecode=2P_Code10

New Line.trip_line_633_B_h_20 length=50 units=ft
~ bus1=trip_node_633_B_3.1.2
~ bus2=trip_load_633_B_h_20.1.2 switch=n  phases=2 Linecode=2P_Code10

New Line.trip_line_633_B_h_21 length=50 units=ft
~ bus1=trip_node_633_B_3.1.2
~ bus2=trip_load_633_B_h_21.1.2 switch=n  phases=2 Linecode=2P_Code10

New Line.trip_line_633_B_h_22 length=50 units=ft
~ bus1=trip_node_633_B_3.1.2
~ bus2=trip_load_633_B_h_22.1.2 switch=n  phases=2 Linecode=2P_Code10

New Line.trip_line_633_B_h_23 length=50 units=ft
~ bus1=trip_node_633_B_3.1.2
~ bus2=trip_load_633_B_h_23.1.2 switch=n  phases=2 Linecode=2P_Code10

New Line.trip_line_633_B_h_24 length=50 units=ft
~ bus1=trip_node_633_B_3.1.2
~ bus2=trip_load_633_B_h_24.1.2 switch=n  phases=2 Linecode=2P_Code10

 
New Line.trip_line_633_B_h_25 length=50 units=ft
~ bus1=trip_node_633_B_4.1.2
~ bus2=trip_load_633_B_h_25.1.2 switch=n  phases=2 Linecode=2P_Code10

New Line.trip_line_633_B_h_26 length=50 units=ft
~ bus1=trip_node_633_B_4.1.2
~ bus2=trip_load_633_B_h_26.1.2 switch=n  phases=2 Linecode=2P_Code10

New Line.trip_line_633_B_h_27 length=50 units=ft
~ bus1=trip_node_633_B_4.1.2
~ bus2=trip_load_633_B_h_27.1.2 switch=n  phases=2 Linecode=2P_Code10

New Line.trip_line_633_B_h_28 length=50 units=ft
~ bus1=trip_node_633_B_4.1.2
~ bus2=trip_load_633_B_h_28.1.2 switch=n  phases=2 Linecode=2P_Code10

New Line.trip_line_633_B_h_29 length=50 units=ft
~ bus1=trip_node_633_B_4.1.2
~ bus2=trip_load_633_B_h_29.1.2 switch=n  phases=2 Linecode=2P_Code10

New Line.trip_line_633_B_h_30 length=50 units=ft
~ bus1=trip_node_633_B_4.1.2
~ bus2=trip_load_633_B_h_30.1.2 switch=n  phases=2 Linecode=2P_Code10

New Line.trip_line_633_B_h_31 length=50 units=ft
~ bus1=trip_node_633_B_4.1.2
~ bus2=trip_load_633_B_h_31.1.2 switch=n  phases=2 Linecode=2P_Code10

New Line.trip_line_633_B_h_32 length=50 units=ft
~ bus1=trip_node_633_B_4.1.2
~ bus2=trip_load_633_B_h_32.1.2 switch=n  phases=2 Linecode=2P_Code10

 
New Line.trip_line_633_B_h_33 length=50 units=ft
~ bus1=trip_node_633_B_5.1.2
~ bus2=trip_load_633_B_h_33.1.2 switch=n  phases=2 Linecode=2P_Code10

New Line.trip_line_633_B_h_34 length=50 units=ft
~ bus1=trip_node_633_B_5.1.2
~ bus2=trip_load_633_B_h_34.1.2 switch=n  phases=2 Linecode=2P_Code10

New Line.trip_line_633_B_h_35 length=50 units=ft
~ bus1=trip_node_633_B_5.1.2
~ bus2=trip_load_633_B_h_35.1.2 switch=n  phases=2 Linecode=2P_Code10

New Line.trip_line_633_B_h_36 length=50 units=ft
~ bus1=trip_node_633_B_5.1.2
~ bus2=trip_load_633_B_h_36.1.2 switch=n  phases=2 Linecode=2P_Code10

New Line.trip_line_633_B_h_37 length=50 units=ft
~ bus1=trip_node_633_B_5.1.2
~ bus2=trip_load_633_B_h_37.1.2 switch=n  phases=2 Linecode=2P_Code10

New Line.trip_line_633_B_h_38 length=50 units=ft
~ bus1=trip_node_633_B_5.1.2
~ bus2=trip_load_633_B_h_38.1.2 switch=n  phases=2 Linecode=2P_Code10

New Line.trip_line_633_B_h_39 length=50 units=ft
~ bus1=trip_node_633_B_5.1.2
~ bus2=trip_load_633_B_h_39.1.2 switch=n  phases=2 Linecode=2P_Code10

New Line.trip_line_633_B_h_40 length=50 units=ft
~ bus1=trip_node_633_B_5.1.2
~ bus2=trip_load_633_B_h_40.1.2 switch=n  phases=2 Linecode=2P_Code10

 
New Line.trip_line_633_C_h_1 length=50 units=ft
~ bus1=trip_node_633_C_1.1.2
~ bus2=trip_load_633_C_h_1.1.2 switch=n  phases=2 Linecode=2P_Code10

New Line.trip_line_633_C_h_2 length=50 units=ft
~ bus1=trip_node_633_C_1.1.2
~ bus2=trip_load_633_C_h_2.1.2 switch=n  phases=2 Linecode=2P_Code10

New Line.trip_line_633_C_h_3 length=50 units=ft
~ bus1=trip_node_633_C_1.1.2
~ bus2=trip_load_633_C_h_3.1.2 switch=n  phases=2 Linecode=2P_Code10

New Line.trip_line_633_C_h_4 length=50 units=ft
~ bus1=trip_node_633_C_1.1.2
~ bus2=trip_load_633_C_h_4.1.2 switch=n  phases=2 Linecode=2P_Code10

New Line.trip_line_633_C_h_5 length=50 units=ft
~ bus1=trip_node_633_C_1.1.2
~ bus2=trip_load_633_C_h_5.1.2 switch=n  phases=2 Linecode=2P_Code10

New Line.trip_line_633_C_h_6 length=50 units=ft
~ bus1=trip_node_633_C_1.1.2
~ bus2=trip_load_633_C_h_6.1.2 switch=n  phases=2 Linecode=2P_Code10

New Line.trip_line_633_C_h_7 length=50 units=ft
~ bus1=trip_node_633_C_1.1.2
~ bus2=trip_load_633_C_h_7.1.2 switch=n  phases=2 Linecode=2P_Code10

New Line.trip_line_633_C_h_8 length=50 units=ft
~ bus1=trip_node_633_C_1.1.2
~ bus2=trip_load_633_C_h_8.1.2 switch=n  phases=2 Linecode=2P_Code10

 
New Line.trip_line_633_C_h_9 length=50 units=ft
~ bus1=trip_node_633_C_2.1.2
~ bus2=trip_load_633_C_h_9.1.2 switch=n  phases=2 Linecode=2P_Code10

New Line.trip_line_633_C_h_10 length=50 units=ft
~ bus1=trip_node_633_C_2.1.2
~ bus2=trip_load_633_C_h_10.1.2 switch=n  phases=2 Linecode=2P_Code10

New Line.trip_line_633_C_h_11 length=50 units=ft
~ bus1=trip_node_633_C_2.1.2
~ bus2=trip_load_633_C_h_11.1.2 switch=n  phases=2 Linecode=2P_Code10

New Line.trip_line_633_C_h_12 length=50 units=ft
~ bus1=trip_node_633_C_2.1.2
~ bus2=trip_load_633_C_h_12.1.2 switch=n  phases=2 Linecode=2P_Code10

New Line.trip_line_633_C_h_13 length=50 units=ft
~ bus1=trip_node_633_C_2.1.2
~ bus2=trip_load_633_C_h_13.1.2 switch=n  phases=2 Linecode=2P_Code10

New Line.trip_line_633_C_h_14 length=50 units=ft
~ bus1=trip_node_633_C_2.1.2
~ bus2=trip_load_633_C_h_14.1.2 switch=n  phases=2 Linecode=2P_Code10

New Line.trip_line_633_C_h_15 length=50 units=ft
~ bus1=trip_node_633_C_2.1.2
~ bus2=trip_load_633_C_h_15.1.2 switch=n  phases=2 Linecode=2P_Code10

New Line.trip_line_633_C_h_16 length=50 units=ft
~ bus1=trip_node_633_C_2.1.2
~ bus2=trip_load_633_C_h_16.1.2 switch=n  phases=2 Linecode=2P_Code10

 
New Line.trip_line_633_C_h_17 length=50 units=ft
~ bus1=trip_node_633_C_3.1.2
~ bus2=trip_load_633_C_h_17.1.2 switch=n  phases=2 Linecode=2P_Code10

New Line.trip_line_633_C_h_18 length=50 units=ft
~ bus1=trip_node_633_C_3.1.2
~ bus2=trip_load_633_C_h_18.1.2 switch=n  phases=2 Linecode=2P_Code10

New Line.trip_line_633_C_h_19 length=50 units=ft
~ bus1=trip_node_633_C_3.1.2
~ bus2=trip_load_633_C_h_19.1.2 switch=n  phases=2 Linecode=2P_Code10

New Line.trip_line_633_C_h_20 length=50 units=ft
~ bus1=trip_node_633_C_3.1.2
~ bus2=trip_load_633_C_h_20.1.2 switch=n  phases=2 Linecode=2P_Code10

New Line.trip_line_633_C_h_21 length=50 units=ft
~ bus1=trip_node_633_C_3.1.2
~ bus2=trip_load_633_C_h_21.1.2 switch=n  phases=2 Linecode=2P_Code10

New Line.trip_line_633_C_h_22 length=50 units=ft
~ bus1=trip_node_633_C_3.1.2
~ bus2=trip_load_633_C_h_22.1.2 switch=n  phases=2 Linecode=2P_Code10

New Line.trip_line_633_C_h_23 length=50 units=ft
~ bus1=trip_node_633_C_3.1.2
~ bus2=trip_load_633_C_h_23.1.2 switch=n  phases=2 Linecode=2P_Code10

New Line.trip_line_633_C_h_24 length=50 units=ft
~ bus1=trip_node_633_C_3.1.2
~ bus2=trip_load_633_C_h_24.1.2 switch=n  phases=2 Linecode=2P_Code10

 
New Line.trip_line_633_C_h_25 length=50 units=ft
~ bus1=trip_node_633_C_4.1.2
~ bus2=trip_load_633_C_h_25.1.2 switch=n  phases=2 Linecode=2P_Code10

New Line.trip_line_633_C_h_26 length=50 units=ft
~ bus1=trip_node_633_C_4.1.2
~ bus2=trip_load_633_C_h_26.1.2 switch=n  phases=2 Linecode=2P_Code10

New Line.trip_line_633_C_h_27 length=50 units=ft
~ bus1=trip_node_633_C_4.1.2
~ bus2=trip_load_633_C_h_27.1.2 switch=n  phases=2 Linecode=2P_Code10

New Line.trip_line_633_C_h_28 length=50 units=ft
~ bus1=trip_node_633_C_4.1.2
~ bus2=trip_load_633_C_h_28.1.2 switch=n  phases=2 Linecode=2P_Code10

New Line.trip_line_633_C_h_29 length=50 units=ft
~ bus1=trip_node_633_C_4.1.2
~ bus2=trip_load_633_C_h_29.1.2 switch=n  phases=2 Linecode=2P_Code10

New Line.trip_line_633_C_h_30 length=50 units=ft
~ bus1=trip_node_633_C_4.1.2
~ bus2=trip_load_633_C_h_30.1.2 switch=n  phases=2 Linecode=2P_Code10

New Line.trip_line_633_C_h_31 length=50 units=ft
~ bus1=trip_node_633_C_4.1.2
~ bus2=trip_load_633_C_h_31.1.2 switch=n  phases=2 Linecode=2P_Code10

New Line.trip_line_633_C_h_32 length=50 units=ft
~ bus1=trip_node_633_C_4.1.2
~ bus2=trip_load_633_C_h_32.1.2 switch=n  phases=2 Linecode=2P_Code10

 
New Line.trip_line_633_C_h_33 length=50 units=ft
~ bus1=trip_node_633_C_5.1.2
~ bus2=trip_load_633_C_h_33.1.2 switch=n  phases=2 Linecode=2P_Code10

New Line.trip_line_633_C_h_34 length=50 units=ft
~ bus1=trip_node_633_C_5.1.2
~ bus2=trip_load_633_C_h_34.1.2 switch=n  phases=2 Linecode=2P_Code10

New Line.trip_line_633_C_h_35 length=50 units=ft
~ bus1=trip_node_633_C_5.1.2
~ bus2=trip_load_633_C_h_35.1.2 switch=n  phases=2 Linecode=2P_Code10

New Line.trip_line_633_C_h_36 length=50 units=ft
~ bus1=trip_node_633_C_5.1.2
~ bus2=trip_load_633_C_h_36.1.2 switch=n  phases=2 Linecode=2P_Code10

New Line.trip_line_633_C_h_37 length=50 units=ft
~ bus1=trip_node_633_C_5.1.2
~ bus2=trip_load_633_C_h_37.1.2 switch=n  phases=2 Linecode=2P_Code10

New Line.trip_line_633_C_h_38 length=50 units=ft
~ bus1=trip_node_633_C_5.1.2
~ bus2=trip_load_633_C_h_38.1.2 switch=n  phases=2 Linecode=2P_Code10

New Line.trip_line_633_C_h_39 length=50 units=ft
~ bus1=trip_node_633_C_5.1.2
~ bus2=trip_load_633_C_h_39.1.2 switch=n  phases=2 Linecode=2P_Code10

New Line.trip_line_633_C_h_40 length=50 units=ft
~ bus1=trip_node_633_C_5.1.2
~ bus2=trip_load_633_C_h_40.1.2 switch=n  phases=2 Linecode=2P_Code10

 
New Line.trip_line_632_A_h_1 length=50 units=ft
~ bus1=trip_node_632_A_1.1.2
~ bus2=trip_load_632_A_h_1.1.2 switch=n  phases=2 Linecode=2P_Code10

New Line.trip_line_632_A_h_2 length=50 units=ft
~ bus1=trip_node_632_A_1.1.2
~ bus2=trip_load_632_A_h_2.1.2 switch=n  phases=2 Linecode=2P_Code10

New Line.trip_line_632_A_h_3 length=50 units=ft
~ bus1=trip_node_632_A_1.1.2
~ bus2=trip_load_632_A_h_3.1.2 switch=n  phases=2 Linecode=2P_Code10

New Line.trip_line_632_A_h_4 length=50 units=ft
~ bus1=trip_node_632_A_1.1.2
~ bus2=trip_load_632_A_h_4.1.2 switch=n  phases=2 Linecode=2P_Code10

New Line.trip_line_632_A_h_5 length=50 units=ft
~ bus1=trip_node_632_A_1.1.2
~ bus2=trip_load_632_A_h_5.1.2 switch=n  phases=2 Linecode=2P_Code10

New Line.trip_line_632_A_h_6 length=50 units=ft
~ bus1=trip_node_632_A_1.1.2
~ bus2=trip_load_632_A_h_6.1.2 switch=n  phases=2 Linecode=2P_Code10

New Line.trip_line_632_A_h_7 length=50 units=ft
~ bus1=trip_node_632_A_1.1.2
~ bus2=trip_load_632_A_h_7.1.2 switch=n  phases=2 Linecode=2P_Code10

New Line.trip_line_632_A_h_8 length=50 units=ft
~ bus1=trip_node_632_A_1.1.2
~ bus2=trip_load_632_A_h_8.1.2 switch=n  phases=2 Linecode=2P_Code10

 
New Line.trip_line_632_A_h_9 length=50 units=ft
~ bus1=trip_node_632_A_2.1.2
~ bus2=trip_load_632_A_h_9.1.2 switch=n  phases=2 Linecode=2P_Code10

New Line.trip_line_632_A_h_10 length=50 units=ft
...